3
Coordinates from ORCA-job n2o_b3lyp_def2_TZVP E -184.661130169827
  N       0.000000      0.000000     -1.187431
  N       0.000000      0.000000     -0.074171
  O       0.000000      0.000000      1.103902
3
Coordinates from ORCA-job n2o_b3lyp_def2_TZVP E -184.661318689310
  N      -0.000000     -0.000000     -1.193980
  N       0.000000      0.000000     -0.072989
  O      -0.000000     -0.000000      1.109269
3
Coordinates from ORCA-job n2o_b3lyp_def2_TZVP E -184.661319421079
  N       0.000000     -0.000000     -1.194310
  N      -0.000000      0.000000     -0.073097
  O       0.000000     -0.000000      1.109707
3
Coordinates from ORCA-job n2o_b3lyp_def2_TZVP E -184.661319457903
  N       0.000000      0.000000     -1.194351
  N      -0.000000     -0.000000     -0.073151
  O       0.000000      0.000000      1.109802
