3
Coordinates from ORCA-job n2o_mp2_cc_pVTZ E -184.390453762507
  N       0.000000      0.000000     -1.187431
  N       0.000000      0.000000     -0.074171
  O       0.000000      0.000000      1.103902
3
Coordinates from ORCA-job n2o_mp2_cc_pVTZ E -184.393547504404
  N       0.000000      0.000000     -1.210202
  N      -0.000000     -0.000000     -0.064118
  O       0.000000      0.000000      1.116620
3
Coordinates from ORCA-job n2o_mp2_cc_pVTZ E -184.393683806127
  N      -0.000000     -0.000000     -1.215042
  N       0.000000      0.000000     -0.061335
  O      -0.000000     -0.000000      1.118676
3
Coordinates from ORCA-job n2o_mp2_cc_pVTZ E -184.393687465126
  N       0.000000      0.000000     -1.215921
  N      -0.000000     -0.000000     -0.060806
  O       0.000000      0.000000      1.119028
3
Coordinates from ORCA-job n2o_mp2_cc_pVTZ E -184.393687661680
  N       0.000000     -0.000000     -1.215945
  N      -0.000000      0.000000     -0.060793
  O       0.000000     -0.000000      1.119038
