3
Coordinates from ORCA-job n2o_hf_def2_TZVP E -183.760918459748
  N       0.000000      0.000000     -1.187431
  N       0.000000      0.000000     -0.074171
  O       0.000000      0.000000      1.103902
3
Coordinates from ORCA-job n2o_hf_def2_TZVP E -183.764068876837
  N       0.000000     -0.000000     -1.159512
  N      -0.000000      0.000000     -0.082535
  O       0.000000     -0.000000      1.084347
3
Coordinates from ORCA-job n2o_hf_def2_TZVP E -183.764131279477
  N       0.000000     -0.000000     -1.163151
  N      -0.000000      0.000000     -0.081328
  O       0.000000     -0.000000      1.086779
3
Coordinates from ORCA-job n2o_hf_def2_TZVP E -183.764132069273
  N       0.000000     -0.000000     -1.162790
  N      -0.000000      0.000000     -0.081454
  O       0.000000     -0.000000      1.086543
3
Coordinates from ORCA-job n2o_hf_def2_TZVP E -183.764132069793
  N      -0.000000      0.000000     -1.162787
  N       0.000000     -0.000000     -0.081459
  O      -0.000000      0.000000      1.086546
